EBEICJABPCJAJKFNNIICONPANOEMOIPALDAPPDAGOMMDPMAGBBDBPCNDGPOFPKLNLDCBADFBKNMNHAFIBAKBJJLKLFBDJHBKHBMABIEMNIIDDKNMMNCJDPDFJANCLBHHIIFOFAEOPNDELIHN
OCEGPDNLKLMNLCIIKDEIKNMINGFMKPDJGOCFOOLAGCLBJAKCJLOHDKMBJCFFHODICPKPKMECPHMGKBPA

PPKKNJGADLNFCOODLJBAEFGAGPHEKBGFEONKDCIHKGCMJFHGONKBCIAOANIFPJPD
GLOLLDGLJKFGBCEOFHMBNANPICAAIFJFNHOJDNMBKLPDIEKMBMKFKCCKDDFCJOLF
BGPLFHPKGEFFLLHLANFLEEBJGFOGFDOA
ECMABNOCNGIDIGNOLIBFMIGCKCNCOPKE
EAMHNBPPJOOCKOIJIFACJIGAAKCHHMLA
CDIBFLAPECHIJBJN
DLBKNDGOKBGCMIGEHHDMMBMCLPPMEACF
EKBMGNIAKLEBHJCOEFNJIECDNDGHKIHO
IJMPPHKGGIFCBEBIHLBDKOOEFKDMCAPBJFPHAMHMGIONHBCB
GLPMNGLAGEANOGAD
IHGCOCFDBBKDGICPIBHEJFDGJNDFJCEA
NMPNEPKNIGDGAGGFHKBEBMKMKGHMKOBF
NBHKMOBHMPPHFLOPKIHKODKGOJCKGNOECKJHKGNLDDOLIMKD
AHMOOCAAFOLCCBNG
COMFBNENDCMKLNNKEDHBCHBMLLMOCFACHJHMMNJOFJFLAEKO
BONJCMEGPEDNPCPECAJEHBLBLCJDNOKK
EFDLPKINFMPGCEHPMEEOPJMAHPOJNLCKINPBCBCNFNKNBIMINBJLDCIPPPPEHLMILCFBOOCFPKEPJEEP
AAFAJONIDANLFAGCFJPAHAHHJPCELKELIIEIDKPEHCMIOKADGEAJANIMPMFNJBALDEALOBFILPHLKALFIPOKGIDHAMCHGNCJ
JNHFHLMHIBEMJNPCMPBKNNNAMOHLHICKLNNADIIKLNENCABPMBNFPPIPEDIBHKEFKCBNEMMKMJOHLMFIGCAJIDOMBAOFEAFB
NBDECPNLGEMLFNOJCOKNGEIIPFIBJHLFKKKHPJMMGECNFNLJBCGCMNMBOHHLAFPLMHHDKMGGCCFHFNLFHMDCBEHIADHMOMME
DJKENLIHIGEMEBDCKOJGGDEECDCMHKOBMCJKLFNOBNJFFNKCBNBOKALPAMLDCIOGOJMCHHFLMJOHHDPJBCAGGNOBMBPOIBLB
HPJMNIGPCFOAHNBOHKPDFDNIDAGEJBBFJBGMMEOIABNCHNHIFNJCCAINJEBOGDKMAGBHHEHFIOMOONCNDKCOHNNDADAPOPAM
JDIPCNAPNBICEPHLJOHGLEGKPFCODNKCDLBJIGEIOHJMPHMBJOCLFPMMAEJDMODN
PLMCJJHLGEMIJNFHKMNFMEEECAIABIBODNALCDKHPAHNDEBDDJDJAKLEMAMLDIIOAIEIMFJPJJGMLCAADNNIOFMPEGLLKJLL
DIIIGNCOOMPGPABJPFOFDGIIHPPGEFFIINICECIICJCLFLFKBMICFKHGBDEKOJJNKAGBHJDFJFADPOPFNFLGFGFFKEMCLHAD
NCJFGFDGIKCLHLAJPIOKAFHGBFPNEMID
BPMBNKGJAPINPOBIENEBMFCFGMNGMAFDHDOHKIJALGFMHOPGPILOKMEKAHGKBCFMOCOIIICOKOHOBIJPFJKHFEGGHBAOFOCAALOKADAOHFMOMEJJ
CPGBLCLGPEIHHKAAKHJIBDNAIMKKFPONMBDJLJLJLMNADGMGADMAOBMPLLFMPLAJKOIEGKFKKJFMODMOEJCCBEOEECFOHCAA
KCNOCCNBBDLFBDENFMAPLAKIHAIEHCAKFLJCJFCEJHABHOPEBIHEJBNLBBKFBCAJMAOJDIKJDKCMPIBPCKANADHJFICDNOHNKKBPELOJIDJOJAND
ADMKCCIONKDHHEFHMIOMMMJIMNPOBPAFJAFGMCLBHPACPCIFIPALBIPPACMIBNJDGMDPEMNIGFCCIJKCPLGGIFKPHNKPDHJJFELPOBIJHAAGAHKP
JKPKELHKCACDEHAEMNIALKNHGEMOCIGDBOCKAADIGLJKEHKNJBGGMDEDABFJEPPCCFGAPPALABGBMBAFCGBELJHDIEJDAOJLDFJDCDNDNAIKEEMN
BKGJHAIOJIAIEHFFPCLHOHFHNNGEKCGLAGFPDKDAPELDGJGGNOHJJKHLAKBAFOFDMCAAEDOFCELJNCJBGNJOMEKBJIGJIBPCKOHOMIFJLBGOIIIMHNGHHIODFHDIHMNO
NMCKLJMIEGMOJNPGIIOMKDPJHIIBNDNPIMOGBJDAIMCNONJIJICDHOJAKJHLDIMNDFIDJJCKLLAOMDKKFHNGODBBGBIEGMNIMBDBGMEKJGJKEPHM
JMCBOODJFJPHABLGFADFMDDBBPHCBBDPJOCKMNKBNAOJLPOBMDPHNOHPMKPEHDPACHDDMDGOCBOGEJKNDNDFBENEFAJKDAJLFJCJBIMJLCGDCOOMFPBFNGGEAFMMIKEL
AAJNDCGFKBMLHEJDHDGPBCCCMKPHPNLPJFAIBELJNIALBDEPBFEIAIKJKDGBBNMOOHFAOHAMCCMGPFBANKEJJLKKDNONBNKD
AMLMNIFDPFLNPENCLCEKKMFALIFNBKNNDGKBKAHHLOGOIDFCLDGELHDBELBAGICDGEBIFNGIIKJKILOBOEOOMGDDKHLMDFHL
GOKGMOLAOLNMLIODOHJINLCMEFNLBCNNKGMGCFALFLFMPEFCKGCLNNENAKIILHCDCMBGPMBEBONCKAOBADAMPBEOBJNJFDCC
FFLMFNAOHPLNPECMLAEKIILPLIFNGJNBDEKBDNCCLOGOCKDALBGEEDCPELBAOJPNGGBIMBHDIKJKEKJEOGOODFGOKHLMBCNC
LNKGEFKMPKNMCKCEIHNDLGKEIDMEENCLCLGONCCPHPJHLIJBCKHCCHIOKOJKOJNMDAIEEAEHAHAMGBIEMPFMFOLNEJOFGCJI
