EBEICJABPCJAJKFNNIICONPANOEMOIPALDAPNLBGOMMDCIMJPJIAHMIMHHPJPLPPJDJMJHHABHJKEPIFKALONJDHKOALGNCHMMFFJJGNADAJNDACOPDKOHMIFEGCHJEB
LFIGFILCGFDBGIPBBCMELCCDCEADDKGKHGIOHMBBGCAIJNJCMGJIDGENPPEGOFIJCKIOPLDBKIOBAFAO

ABMLNBAKOLLNEPDJGPOHDLNLIJFMICCABLIEBJEPEDLIKJKHPGBGANOKFNJAIPDP
MCNKPIOLGNOHCBNGPNMPMFJFIDJNBEKACHMLNJKFIKLDOPAA
LLBFBHGAIMFNEOCKHPHFGBKGNNCKGDEK
BOOJEMJAEGONPHBGBNPJHIONNDIJDOFB
EOMOHGHMMODILIBOBBDELLEKGFPGDGKJ
DGDKJPIJMDOGJNHI
EGHCLALPECFIAMCAHGJLNNKBAGLJFGCD
BCJHACPMAPPPFLHK
GCHKFLMLHFNNDDAPKBPNFAAANHPHJMNNHMBNKLELHFHAKGCCLHPMGLPMABCLABLHLPJAJEJKJNGFNMDM
CHMJEONKOLPHOFBJ
EIBPMAMENBNBLDBPCLJLOIPBOJFBFPMK
FPCBNDNNHHDEBNOJLCEIDDEOPOOINMIK
EIBPMMMINBNBLDBPCLJLHAMMOJFBCDIH
MNHIDFGCODKLPAKNNIOPALKNIODNLCPNLNGKOOGCIHLPHLKG
LPJMPHEHBKHDFDBPJGKDDGECPIAEDANIFDLGPIHONECDMKAO
OBBAOKJMHFCPGONHOCNBJKPDNKABLIPM
CLIAIGOAOCLFGMKL
BDIGIHACAOOHPJFJEAIEEHNHDOKEEFBBANOLIBFBAOBHNHOGOGKOOECDAHNMHFHCCMKCFOCNJHIDHFKJ
ADGNJDGBBGFLCGNG
LNMJOJPKCELKBPEJPONHJPFFHIMEKOLF
BKIKPMICABPOBPCJNNBFEBBPIEHONAOO
BPGLKGGEABLKAAHLIFHKMLDPPGGLBNOC
IOKHGIHLFAPOGICILJFCIDKMKIDAOIGJ
BPGLKKGIABLKAAHLIFHKPDIOPGGLLIEO
BOIPLLCHHCECOIFEMILFHDMLHMOJKDEC
JHNPODHFFAGAHHMN
EOPHMGKCNKGGDADBLGLMOJFPLKCONBFKFBIBIKMONKNILHOBIOLEKLLLELCOOHLHKHAAGGPPBLJEJDGB
FICEELFNLLFJKGKI
BKMLNOADMBLODFJLJKBBJJMMOKKEELHM
ALBHPFPFMBHHNOJBLHMFGNJNJGMCFEKP
EELCBAJMJJLOODOMFNDHGJIFMAPBDAAA
ALBHPJPJMBHHNOJBLHMFKAMNJGMCEIOF
FDHGMKMGJKFINDBJGHJPDIMBCDLJOEDO
FNJDOLJBJJPPOPMP
KFHMCMAHAFBPNLMKJGOOBJOFABPGHOAELKCLFLHAAFCKLNNBLLELAMBEBGPHHOGCBMPAJNKMKOOCKGBBKKHFOJKLCEMINCFH
KEHPJLMBCKOGBHFN
HDPLCMACEAELOCIEBECLHIACCLLIDEMJ
JFPFBIEIGGBJAMNHNCEMOHHGNADNDHKF
DJCFHMNIMBHJAMFGEHCHPDHDENMCKMBH
DMACJFIOMBBJOOBDIALFHKHFJGHEGNBA
HDEBDKBIJJHJFGBHGKIKLDPLMAJDJGNF
DMACJJICMBBJOOBDIALFNODPJGHEBDIC
GEGFNFJKJKEJEMMGFAFNBMCFCDFCPHIE
GKPMPPEKJJCEEFGI
GHJBDEOPFHDGILACIDNBMFCDHLGCKGAEEFBJJCOEMDMGGNNH
FHOIAKDPHPOAIHLL
PPJCKAGLGDEBOHDDOLHMAPJGJEPLICBEBIAAGFKDEMNDMANI
CHGPEKKIMNPGIPDFGDKCAKJBHPFBELMI
DLOFBFEBKMKIGJKLLNIMAKNAKGMBHMMJJKLCNNLNKJJKNGDHKJNGELCBFOIKEGJDBDLOGEOJKJBBLKHLFHKHMFPHJFIIDJOA
NMBOANFICALEDPPBBILHAKCLHFNCHHBDBMBOHHKCNMLFOMKNMBBCKJGENHIEECBDPJBKMPLKICLEDCMDPPPAPOIHOBBGFJLE
GEMHMPFDLELFPKIBMBADLMNEAHAJEOGIBCJHJJLBABBEAOOAFJFDFECAKABFODPCCPFNFKGJLNFEBKBJKKIAEKOINEMLOCMJKJJCILLOGIKKBNBO
NBHPFGBENBOJLKPDBINLLHENMNHHPEDDOKAEJGFDFHIDGNJGJLGOOCEDKFDCLLDDIHMKDLEPHPNEMLBAAHCOKMDFCIFEFODL
BBCFBFCAPPJKPKBBJHDMIFNHCAHPMAKAPLPHGJCPAHDCJMFDAIEDHMGFLNBEPPNDHONKOELOKAIKDNHBGFOLPOOHDFEGGHKN
IMCPHIHOJNCPIOMHKBGPCOHHGKODKIPAOIEMKANBIMMDKGNKNGCKKLEDBGBJHGDPEPECIDPGBPNBGLOGGIPKDFJDGEDKECJIHNFKGEMJGECABEPD
NHHLDOELNIFMKJGJJFFNIOKJPEIKFIMCPDLIHIKFFEEHDNAKEMAIMIHKCEFOGHBLFAJDPJMBAKINPAPNEAPFEGAKPBPBMGGH
FAPHBGHBJOMIHFCDALFLMAKGAGIIPLILJDGNEKBOGHKILBMGNOAMEDBGPPFOKIPNPDGCKDJEMGKJBACGANALCDKGFANKFOMJCCMFIIPHDMOJBEEC
EOOFBEELHAFPOFFMNICPCCEAALIINPHJGBJCGNDFDIGONLLBOJFHFNGHAFBAAOKLHNFPLNIEAHGHCNIFGBCMEIGOBFHJJAAHDFBJDAEMFDDIDLKI
IFLLCDFJGLPJIECFKAKPPPJJHDANMBFJOICMIIPLDAGEIOGHHAHGOMNJBECLLCLDMHIEMAFJKCDHNDEGGENFMJBMFFFKOCJCLHPNIPJGCCFNJAKH
LKGLGINEHCBFLJADCMGJCNLNPEABKOMJCOPEFMGILNIEKJPOIBMNBLLMPKFKJICPOCBGFCBAPPBMMHOENOOPMDMHMIJHAIBKKDEGJPGNGNFEPMHG
JCGEGCDMFGNMHCCJFDGKKKKNHIBPCMBFALOIKBACOKDDJEICCJKIKMOIOBLFOJDEFPHGIIKIECBBGMNPAINIBDJLEIHOMAEAJEBGCBEDEHFEOHIB
KKGCJNNOEOBFMOFFICGAGABJNMABJKCIKOPNFJIOCFIEHGGKMNMEPHNIBGFKOAGLOCBPGPANEDBMNLIBCFOGGCEPOHJHEKJBDOMHONIPDACGJKGE
JDGENOMBKNNMDEIFKNGKNNBFGLBPLCOBKLOIENCBOGDDFGBFPOJNLELEHPFKELFJOCHPPAOCKFBBLFHONHFEBBNFGILHBCHBOKCGAJBAPHLGPMHF
KJPDPHJLKPCNNNCKFFOENOFICAIBJNJNMEGHCAIIPAMLMIIIMAFFGNCGMAHNIANGPBFKJPBCJJOCMLGNAAKIEDKNHCDBFJLOCOGCNKGEHKAILPFB
GEMPIMAFHAMLJMPOAGPMLOLANCCHKJIKEEFLLPJMAKCNOKLBJCJOAPMNIFHLBLHBPOGKCCCFBMFJDCJIODMJAFIJPAMPGKPD
PLOGEEINPFEJPKOPFOEGDHCMIGNCEOPLBBNJBCGMCAGEAOIDNCDMCCGOBPKBNLGBMPGGFJPICDFKLLBODGLJJEKGMBPCOFEI
HAMHEMLDNIGELKPMFDKIKFCGCFOAPNONNJPIEICEOLEJCHFPACFFFJNFEDBNJAIJCNDACEIIBGAGAFFPLANKAECCPOHBCPIPKOIGCHGDHLABHHAL
EEIADJPEGLOAMMBDCAOPLNOHELGEMOGKEDHAAFEHEONCFGNBPOIOPMEACDBOELEKAILBJBEOODILMEPOIOHJLIENGEDGLKLLHEAFDNIFCKBNOBMH
GAMGHOICBGGEDPFOGNLCFFFPCFFDOONNOHJBDAJIOLGBIFCODMFOJIMPEDNCBLHKBDPOEDAIBGGBBKADHGNGPOOIBAJOLHGD
GMJLOCOGPAGBGJOFGIOMMBGHIGAPECDOCHOLGHAHCAMDBDGFOENGLBFEBPDFPPOAPJBKGMGBCDJJHGJPHDMBKHGCAOIPDDEADCFMOJLHHGHCIICF
EBCHBHGDMFALBJCCDKMIIAMDHICLHKDOEFNDEIBIJNMEGDIBKKPHMGOBNJPGJMNPLOAAPCBJBCHICNPMKIGKLOEGAIHBHCCIIHCMCAANHAKCEDNI
JCPEEHLEPFGBHDLFKFKLINEKDIPFLGIGBMDPNCOPALPJJNOIKEMLNDDLAHOACBFNDAHPFAKAAFHPHAFJKHOIMNDFLIHGCCNA
GGCKADCIEPPJKNPKGDKEKDGKCEPFOIHKEKOGJKPLGLGBPACNMFCJDNHFABNCLPODHBFPLFFOABPNBCPLMOGJNNFALBBNBANADOCAFJKHEANDGAGF
MDBLBLLLLNMECNDCHIIIJNEEHADKLPIBLOOHNMPCBKIIAFKFFNAKOIDOMPFMFNDBLPNNHEJMEOCAIFPEDLLNGDMJFGBNEEEDGOGDDEBAMBOOMKMJ
CHFCNEEMLMPJHDMHEKHIMHHMCEOADBGLGDEPHBIDGLPJDKGAOMMAMKDOABPFENODFIGKEGDAABFKANIKAOHKHMNGFIPMKGGM
ECKEHHNNOJIFHBFFBBLFKMAEAPFBFKGLLHLJBKPLOLIFHFGAHBBOAHEGGNDCJGODCGCLFDEIFCPNJCIKEJBCIBABOGAEGKDD
GJFCNEELELPJHDKNEPHIMHLACEOADBCKGGEPHBHBGLPJDKPJOJMAMKLMABPFENEFFNGKEGEHABFKANKKALHKHMHKFIPMKGDD
NEKEHHAPNKIFHBGDBCIDHELBAPJJLDEKLELKNIOLOLIFHDGKHCBNLMPNGNDCPHIBCFCPBJPKFCPCKHBEIHNGGIHGBIOACIGK
JOADLGOCJPLJMECEAKMNGDJLKPGMNGNGNKBNKLEOKCLJADDMJFGGMNHJMGJJNGNDNLGOPKEDOMJFJHOPCPAJBENKGKJCEIOO
OJIOACNLPFDCFGEBENPKJHPPIGFCNBMJLNJAEDLKABDCOOJOPGDHEAMAKAIFHDDPIAABJEJALNPGDHKHHOGMMAAIPLBHBHGC
HJFGEKHNKNOJOFAGJLJBKMOBIPHCCFCABOEIMOCFAKOJIBDFMIONIFPAIFHHJLIPKEKEBGLHBMHMLNJJAHCHPKBNPBKDFMHN
COEDLFABOHDFFPADMDHNINPNEFLHKABDICFNOECKFLDFOHOPICKDCJEAAKJNHOCGAICGPPGBBOHIPBMDMGJLFHPKPIIBLPDG
LFIBAIJLOGPPODIOOKFMOHJGNBHPEANGMMJPPODNKNPPLGPIFADFDACCEOMDHOGJLCHECKDBMPILPIMBDDLHAFIBIIKBLBEI
DNPJAIFLNKDCFGBPMHCPOGJAAHHPNDHPBECMPNGMABJKAGFOFPDGNMGCKABMEHNACJNNBHBLLNCODEMMPPMHPLNJADIHEHMN
KAEPOMHFPFDMFPHHPMLHCIJHNCPEDAGJLOFOJGMJAKNBDFFFGINEGINLIFHHHOHDAEDGHBIFBMJNLDOKJPPNJKNHHJILBONN
AJOHBFFMMODCFGIHMCDBHPJAAHHPIAHPBBDCPHHFABJKNBKPFKCIGBKIKABMOCKLCMNOLHKFLNPBFGKKGICLJGPDBFMADGMFNKHPBCKPGAHHKBKO
BDFFKKOHGIHPCKNIDHPBFLOAOJCPPCEKCEFDLBMOEGPHHDDMCFBDAPJDDOLJLHEFMHLOFJBMNILNPEIKHIEEGKNNJDHPAFNEEJNNCNDBHLLLCGMN
MNPEMIBCDHIFDIFKOGJNHKALLNJKABLBELJOKOEAPAHPCLPLEJALMFIAGBIJGDACEIMBLLHBLLOADLPLNOBDJHIJLIOIKPCO
CJJAOFOCGLHPLMGCAJEGFKPCPGDCFBBOHAPKCNGFHFIFJONIFLFGMPBHFMKBIODEIKLBBKJGJJMALGBHCFKLPHOPMCDHNPMJ
COODONFKPKIFLOCAOKNMMKCELNGPOJAFEHHPDNJMPACAOABLEFBBMBHMGBBNHKPMEEGKFBGALLPCNMEEKBKONBOACINGNCGEIIGDFDOAIGOMKPLE
KKIIBJGKIPFMFNOCAPLKJKHLHAFIGJBPGPAEHDDINBEJCECBBFJHPCKAMKCLEFPBKAGEAMGJMPPNGLHOMFBNOGJFAJECOLBL
DODFFGDLEKJJMGIPDNNDJKJKHMBDPEBKJPCLFEDHLNJJIBFACMFABPABLLLJJLFJCNPNFGKGGBLNGLEFMPAFNHOKMDOPPNCI
MDPPKIAHGEFNGKGADMOCPNJDEPDEINMMLKOBOANPCCFNMNPGFNBBNOLPJECLLIGLAGCKCBBDIOKDJFMALOCFNBDNPANAFIKJ
GJLPAHECHPPHDBNIDLBFHNNAPAKLAHMCLBKBIELDBGPHFPKJBLBIPHFGAMCPNAKLOPGCBPKOMJJGPFGEJBKLDMMFDOEFMOGLPEOOMOMJBFPHKCDC
DLLABDFJJHFNPCLIOIKNLFIDGIDEPFGEDFKOFPFOJOFNAGKKAHFOIAGPGCCLBEDGHHGFIMGELMKDEDOEDACEBENNMHPMICNP
ICFGLDADELPHOIKJMFCPCLNJFHPCMKIOOAFAKOLCOGHPEEGKLFHMNEKGHPNEEHNDKJFPEGPBKFFKEMCIALCPNAHPAILDJFOC
BGEOOJFEGHHPBKOAPDCPDHAJDIFBKPIAEKFAHBFFALBMKMCEPCEKLCNDAHJKHKKMGGLAEIMPAFPNBLPNMACEDKOGLKPCCCHP
CNEFHOHAHIBMFMFGCCNDODDBCEIJAFBNALDJIAIIGLBECEMMIEGFFEPOABLMHLKEDALGENGMABPCPBPENEBGBDKJBDLNICLBKODCDINPANALODHB
KIEJNAJKBPFOOIGDAIKKBIHDBDDLNFEOHPFICPDDPMNIDOMGGKEIENKOCNPOGIOAANKPKOKIICNAHGIBFGCECFKGOAMJPKMF
FLEDGNJLNBNIFHOBAECOMDJOOGKIJOAAJNBIEHPEDAIICIBKGBAEAJAGPACLNDNMPDOBICNMDDPGJPPNNHGPLEIPIFACKPHHFNKLDIBIFLCCMBMC
FLNADGMOMNBOKBNFPNCDEBHKDIBNAIFCEEJBFFCIALCONCNLPMHIJCHPAHDNOICBGIGJMOPPAFJOLDDBKLKKHLJDMENMHMEJ
EMIOKLHMLMCOBFFNCBCGJIAFCEBNIABNAIMIBALIGLBONBMFIHGNIGMKABICOCKEDDPOONCHABMHDEAHAAECFOIMMBMKKOMLCAECNBJODEMAOFBH
EHIHKCLIHDKEIJMPAMHCBIGFFELFAGAFBBKLOCOAEGAJABDGFLLAKEMPILBPHEODKDBAMFABPCKDJMHNCLDMACJPHFDGEKDKBJGGFKGJEKJDBNOE
BMLMCFIHOGHHOINFAMFJKCLGHCOBGAFCNMKCGCBNFMHHLBPBGAAHELGAAOOJIOCKGBFPHMMDLICPGCAGPFKKMNKMAOGJACHM
GJGPECOEMNCOMAMBECBOGLOMAPMKEHBKOEHBNFFDOLCOHNFMCCNIKADMGNBNHCHBHFMEFGICFCBDBCEIFGBFIKAMHJNKJEDHNDDEILFMGDIFBJDN
IAKGLHOCLNPHNHGKEEFMPPCEPKAJPDOCCAIBOJLGEKJJKLPBIFADDDEKPICPCGKLBHOMOGMJLKIFJFPEFOGILABICFBHMAFA
FNJGCGGPJIJJGMMJLEMPIFKNNNIAAKMNDLMKMHMLEGLDDMKJHBGKHFCOILEMHEFPIJFFHKPMPCFLPFIDGCOJFKAGNPBLIIDKOFGEDHHIAIJJGHHP
KGBHPIGBOKEMJLFKIIBIGKLJLMCLAOGHFPLFEPEFCKENCEHKCCLAFAAOOFIBJDFEPEGNHGKFLEKFGCBLEEDBLILMBCHNGFJJ
HMKMLAOPCAENOHKCHNBLFPNIBBCLPHFCAGKEFCJMMNCNBODKAFBIMAGPDKCHNPHLIJKBEEFDFNKAEDBCOJMEAGEDBGABDDMHICHOJBBIMOJBCPGC
JPPNECNPBPDFAOEFBBACMLHOPKJNNGINDBJNMNBIGKGOFIEAECDLMJCHJFIINCEKHNJLJHOIELHILNMCLEFGHMCHGPCOLPMIKLNMIPBMJHEDMLLE
NLNHDMGOJODCEBCIFPPOKAFJEFDMMOJFBOGFIHJFFLHHFNIIBOMAMAABAKOJOEIOJEFLFBHABOCAJAFJFNKLHLGLPLHHPCKLGAJEFKNLGIGDKLFK
NDEGFPICLGKFNABJKPBJHNJIMNFKDKDOBLHHFHNDIBFMOJNJJDCOKCMPHJGKLIJBNCEFLDINOBJOELGO
DPOJMLCPDHCIEFMGCGEJPLLBLNDGPFNCFEPHBBKHMOCIAGJCOCGCMOIFFHNNBEAOOMPDMCKGLABKEDNJJLFJGGDLEDBNHDKBPPFHNKNIGIDMCJJG
CAEAEGICPPFJLGKALPJHADOLNCIHMLNCNLFOJCPNOMFJAAJCNNEBCFNPFCPLPAAOIKPGNIPMGNPGPCNJODCPCJNKDEJDODCCNCAAJDEGPDPPJDPI
BKDKGIKKPEPELGLAGFCHENBABKJMKHNKKDCEOLMOHAPEBMPBBBNGFCOAMPNBNBJBKEGLPFKNMKJOHPPCGACHDKHJLCDLONHJNFMKIKMNAGFOPMGN
HLGCCJODGLMDPPINADPDJDJICKOAFPDHHNHMPGKOEOMDEOOFMAFHGOGCCDFPODKKDGMFHEHHODHACBBEDBNNJKCGGPFAJCAELAMOGIOAFOKCDIDC
OBCCOPICHPNMABNFEIOOOEEKHPLEBBLFJNKJJMKODHDDNLKHKJOJKMHMGFLFAOKFEKJPMHPEACDAEBOKKEDBKJPIIKAHJAKG
FHLCIPPJALDDPKMOOGGMHINNLNMDHKJOHCPBKBIPKMNICDPBOECOJFNLMJCHDNLJIHDPBDIKEDBBMBHBGGKBJONENCFKDOIPGHBOEGNIJJJDEMJA
FMAOMFPIEGAKLKIPJNINALDALONNFFMHGLADGKJAGICIMDEANCDFGGJMIKBFCKGKAFNHIIMJELGGGBMFMJFHJANIIAMLIGEKCIJPCLCJGCAKDIGP
NOMBAGCFDHAJFPOLPFAFGBFFLNLFEMCFFIOKJJFOPAKEJKHGFKACCDGFGBLEEOFGFLIOGHKKLLEFMBMLEHGBECJCKNKCMOOHKOLBHGMPCOLEBNOICIJKKFILFHKAGIFI
KHGGONEFCAIIOHHLFLENPBNBKPKINKMCFKDKJINKJKNIFJLFCJCKKCIGANPODBIJBECKEKCLNMPHCBNPEIOHNCDJCMMDNOKEFCJDEDKJFLBAADLM
DMMLOCOIEOJKNFLHIKJBMDKKKBLOPNGJODIDCOPCHIALBGNBLMMCMBPKKIPPCBOLMCEOFBIKFIMAJBJIOKDKCLOJDFKDLDDDHIGLCJHOOEDHEFPO
DHHKEINAJKPGGPLAFKEEJMILJIAIAPMNCLELJPJFBGFMLJNGHEKGBIODLBIIICKBBEOBNODFILDCOAJGLJOAJOHLFKNFKPEOAJMJMHILKKNPLNEO
IDMFPKDINBIAJJGMJNPGOGBDOGJJEIPFJLNGNGAEGLPJNIDNCNKPCEDKLFLDFMDANOKJJKFDHBFEFCMBNJOJJHAJBEADFOEGEELPOBMKFKAOFOGI
GNHOAOKPFECNFCDBFLFGJCDOAOOILKFPOOHBMAPBFMENNBIEFCAFHCKBAOANNCGGFDDHBIIGLIHJEMEAKEHJHFBGJBMKFFIM
MLMDIBPDIBGEPOFMFPFEGPDDLGMIFPFPKJDGCKFAKLONLAILJJFBAOKOKHOIIEJK
FDOAHFKFOGCOECKFHBBMNCKNILAADMPIHEKIDHPENIBENNAOPEPEMMPGKDLMPJDEAGMGPDBMCCGOFEMLIONJHMAFIHLIEDCF
BMHAIPOCALBAHMHJKNNDNDEBLNGNHAAGDJAPAICLKMIIHOKOKPOBLPANMJLMINBLMMBOIIOHEDJJIPKICDMGJNJICPHBHLGN
ILBKFEHDKBIIFCNNPKDPBMGHCCKBENMJHMOEKKIIEPMDHODIIINJFEFMCCDFDFDPFNBIGAAMOHHIMBKHCIMHFGLJINNKKCEBBAENKDEGKNLMJGLK
EEKBCIHFAFMDPJIPPKGEFBNEKCPHFABKCKLPEIOGKPMDJCNPHIBFMLNMNMPPEFAEEFKPMOKMANBKDDILJIMOMLHKLDKBKLMNIHMNHBDNIBJDCJIJ
LHIFLIAFFKNACJCKMDHJHBKPLBOLKMBD
KFOAHMDKFLJNFEMJMOCMBDELLILMBBPCGBLKKMLKJOBAENNFFDHPOBAGGCGOJLKMCDKNLDHOLMECAKNIMJFDCEILADHGIJEJ
JCKNGDHNHIBAFDEKMMILMIKFKPJHHGPGBMLAOMMHKCBAFNCIFDDNEHIKMGLMNGEJBNBKMEMAOMNPEGHMNFEJKJMOGIGACLDMHNMLFDKKOOBDGIBAPFGBLAJGFMBBLFCJ
HMLOCCJAPEFNDABCJIHEIGFBILDBAGDKLDKDKEPGBGFNGIIMOMFDGIFHLBCLONLEIMKGHHKDILLPPAOHGOKBBDHIFJEJONKPMLNOKEPCEELDAMOPNGPPIMMBCAJOIOLN
OJBMOFMNKNBAGBFJMFJAOMMMKPLMJJMMBFEBLEMGKCJNPLHCFKKJJHMHMGFPIGCNBEDHECLIOMBDDHHNEFIJNJDLPNOFFOAJEHBJHEEFENHBHLPLOOEMKLNBJCAJCIPA
LIKHOAHGPAMICNBHLNDMIJJFIGBDALDDENLJOCCFABMINADKAGPLHOADKABAFNDEHAPOFPJOLNKNPJHLEEPNINLOFBBLMEJCOFCKJHCPOHFKNEIA
DCOKMCCFBPCAPBLDBMIPPFOPGICHMKNHDEPEBBLGAKCAEKGMEBNKMFOKACDNLJHMEHBKKFIANPNPGJMGBFHBMJFINBGEAPFDEDOPHIPCPKALGKAI
IBOFNNLEKIANJPDKHNPBAIOOOPPJDGGEPMJDDBNEMNLDKMNIPPLFDPIKDKBAIGLFHDGDOEDKFNFGKLOKJJGDBPHNAHOGDEHC
PDENLNJLDHBJPNNEIMOKOPKKHDEKOIILMEEFBHDODAPHNDLMFMEIOKEGBECPNIEJOLBDMGDJKCFLEMGFLMMALLGHIMMNFAMFJEPMGENHHJEOLNKE
CDEFBKHEBKGEPPGMJINMCEGAFEANNOHPIFNFLFLIEGPJDNLHMPMIOMPIILMIHMCIDHOENHLHPCJFJDIPBBJJAHIFHNDNNJHPMLOJJBLHMMEBAFND
LFKDCINFOGNCPBLELFCGIOIFEOGEOAJNMLFEILGDCKOAOKNHLGKADLELOFPJBLOFGAOKGBMGLEEPLLGNKFFFMDFMIFOEABPLOOKMGKAPGJFILPPA
IDMDFIJKLMEKDFLIHFHGFLBMAKPHGIDFPAJNANADIPLFDNKEDMMJFEAODEPGHMPJLGNHGPLIDLCCJDFAPKDELPGHDMMONJJBFAPIMMIKNNOBGNOI
NKPJJCHCKCDCPBFFEPFPIAHHHCIFFDDIJPCLKCENFMJKHMLOCDACCEEGAOMDLLIHCCMGGPPJLIKCBBDKJBLDHLAHODOFCKFHCAGLAGNLNPFEOAHM
MDMHALNALMPJGHBENNFGKIOCKBCGPJCAGCNJAACGBFPJOPDFKFFGMNPDECPFPCIPNDADIMJGOBDNFMBIMNCLHOFECPNJFCIENDBCNJHIFFLIACEF
GHMMBCGJOLCLMBOOJCCCFMOJAFCFAKBKPHGEAJJDFGPHGFGDGHGJNANDNJCPFNHIJKJJLNBNMPLDEFGEAOCBLFIDPKNMCJKGGJJDLBOKGIGEMEFJPNMGOPDMDPIIDHFM
GDAICJIANANLONOKFAENDKJDAPNCKPOOPGBGCJKEOLNLAGNIDAEPHOKCGNACEBIHGHJKFBMJFCKJAIOBEEJNACMGHJAPPFLEEPPNGGNMCGFEBKLC
MIMOMPLPBPCLIJGFJPLEAJJNJOPGLBOBDAMDIKCGLIPGNDKHMAJHJPBJLMLFONJDLAIMMIPCGCKNKFBMKGLCFEFGHDKHOAFBOBONEOFHJNLBKNFM
BFPAJLPHMNIICANMCAGLHOCLIGBILPGPNAONLLJNABIIAGICJLELPKAMKAGOCAPJONJJAGPFLNECAMOEGPHCPCOEEGHHCGIAHMLIGNLCNFMACHBM
GFNCBEIPCHCLNDFFGHJCBAACBDOKBGPICLMPLOINAOCLAAGFPMHFAJNHPCHMPAKFKNAPDJILFOEFANCMMADCFINEOMPGILOJKEKEEJPGFKKOIOHB
IMAGJCMLOLBOLJPMIBDNGOLDOPCNJCCOAACFBBBOMNLIADKGADPJHHMJDKAJNGDAIPOKHIGMFNFPAMJPEIPNMFEFFHJPMHFA
IBDDGGMIKBLIGAIEJOLPABKBLMDNFKEAEJIKAKBCCKCAEFGDDEOEPEGHOFBNJMFDOCHPGIBELECPBCPBFJEGBMPKPHOFBKDG
BKJFIMBDALCAOHAPHPLKKJLDBBDNDMCOAECLFJPCMNLIHLNBAHPHBOCCDKAJGILIILOEPLKOFNFPCJOBOFBKENNBGICEEDECEEAEFAOPFMDPMJOO
DMGDKKACGIDDAPMOHJDOKNGBNALEMGLEAKOPBEFAEGNMLPGDALHELDBEDOBEPANPOJOACKFPNIBBIJONPPDFDGKBCHAOMBNDGFELFPEDMEKOKAJM
APFEDGDAOJPEDGHHCKEJEGGJGIJMCLMFPHEKCPLHJOPEEIAEMFLIILINGCNBGINNLFAFCABCLMJOKGCOJNLCONJOBDEDEJBBJILNALGGEMHHDEHG
JDJGEJGDBBCALOGBJCPDDBLCCACHBFECPOIIIGPLAHCAIBCIANKGGPAHLNDNOPPJHLGGEJHPKANPGCOHOBNENFGKPHHBINIILCPMEOBNLDOHLLIKAIKIFDKKENJCBHNK
NACLJPNAEGJJOEPDPHJEMGIFKNBDKHCKHHAMGCDOBKPHFPHBJEAMJCDCMPEKHGNDHGOFLKDNEOPNAPMGIOLKOMDONANELPPOLCOIBCLLAOENDNCP
HOKMCIPEPFDCEGNDDKNIKOECCFFCLBPLBGLCACDJNMDCIPEKMLBFKJGMNHIFODDIPDFHMDACICGACNIFKIPBGNMAFBBNJIKA
CDMHJKHDKMJJBAGHMIMNALNEAKNEJALAADLJNLOFFJLBLCDGKGJOILCKNPPCEGAGKAAGLOEMACLPKFBEBFFNCOOOGMGNGNJB
CDIAMJFOCPLDIKCMFKHFHEOFPAGEIJJFMLPGNNCLCAANLILHHCOICGLAJJIAOFODEDNPOMKKMACHPEMFAKGGMBPEABKAOHMFIPIBBCCFIPEHDKIN
ANBPMMOMJICIIDNPDEBKIEAIOGJMPPMNLABCHOHHLNAKJJCNBPFMICOHPKCEIBBBHMPGLCHBPPLCHAOKMAIHJOADDCOIFJLOOLKHOKFLIFCCBAIL
LGPCOPEOOGIIOAJGMONJNKDAJIKIMDINLPKOLMNHBGNILIFNOAHBGMNPLBCHGCBLIAFAKNMNILNAHCNIOCBFNMOCMGJDOCEFNMJAHOMJLHEBCIGD
LPCLHFFHKPMDGEHPNEGMANCJHAGOBFHGLENBGCMLNBIIDBMIMODPFIGKMKLMFJACHLFGCAHJMPDNGHBFLFOMMBIJMBLBIFFD
IMMJHBECAHEKLCHPNOGOMLDMFLBJCKHGGHJAHBJPPPLFICHEEJMEPGKFBOPGLJODMDAKFHOFAKFELAIBGOKDDLCPMGLJDCBJ
KOIOKAHDGLLFOEBMIPHIHFLLNIPHJHLMIKNHCIKOILEKLACLOANHKDDMCCPHPHDEBCJEGMMFKDMHIDIDKJFKMBCGJFNGFGIPNLMBDLFPIIKGICNOKDNLAGJEBCIPFOKO
LEKJDHKEMFHMLKHFLNAFMDJAKNPGBJBGDNHCNECPBKPGJIABNOFGCBOPMPLBEFCDDMBFLDCAEONJNPPEPNONPKAFMHMOLKJKBOBDBLEMCJCMNFHDHKIFFJAHFKEJHPCK
JOINOIJDFHBAADIDLDMOFKGJBGMIPEDAJIMEHLCAILIAGNGDPCNKAPLPCCANLLDIAAEHIKBOKDKODCMGHIIMBHBHGEEOINKHPKHJDKMLMIMOJBOM
IFEKHBPKNILMDBDNGGCCOJBKLNIBIEFDGEFEAGNIPELMMGDMAINJBNPHDDBAAPMIJKANIJNFPALPFNKHIJJOGJDFPNPIDCAFGBCDFDHAJHGMIMMLMBNIGEALNILGJLGK
MOOMCIGPBGPPNKDINDKNBDCGKPPLBBBLNCKJCLAGJKFJHDCOKBOFJEIKANJKJFBLJMOPOEAPNMBLKHFFNGKCNCKBMLKCKFLNEJLCPJAPJKOGOEGJ
EMBGEFIHHCCECCLBMLNCMLCCMNKLLFGEBKABPHBPGLOJCFIHKMNMACHOLFPEDFKFFPDHLFFGHBFLEDLNILLNHMNLBJKIKHNFCGKFKCGOMIHNPOPM
JBPLPNJCDHEHJHMFGACIFEOFCCIFBLIPOGIFOELGPFCHGOOKMBBJGJFGIOIKNLNJJKDGPFMJJEECPJDLJLNNLLBIAHALOPCPPCCENNJFBLKDCPIJ
BOKDJPGKHCOAMFMAEPOJAAMOOGEJGFLMEJFEJCOGGLNCPKMHPPJLBIGDLFGBDFOAAMKGKPKGHBPNEDFHPFIEPKAODAOKAFLJOINNLIBAGINIFDCN
CDCJIMCPOJGEKGDJCCBPNBMAGKKPHGCDBCPKENNGLJLJNBKAHDLKGKBOELPHKEAPEMLOAFIDJFLKMBGGLPLMOEAMAKJDFIMPEIFFPGLMMCOLFNJO
AHECCEPIAHIJMFDHCKOKOGLLKMNBHFNGLOBDBMDCLNDNCEHOMCPKANHBEDCOKAPDKBMDEMKCMJBBDIJPNJDOOCNCPHEKMLELGIKIHOIPGAIDAKDP
GODOINNMPFKLDLKDJMBNNKCFHPGMBJLAEJINJJFHDHPJPNPOHNJALEBOGFMIHDFNJOIBGFLDACHABNPEDDDGLPJCLCMLGCDLHPNKJCNCCHHNMJPJ
IDIDGIFHEGMBJJCDPCEAIMIAFJMEBBILDJIFPPBIAKIONNIHEMLDHJNMACJDIAHKEKKPMGBCNPDCOJMBDAIBMPDIPFMLLDALEKNMABFNMLKOIOGD
CCJBKANHLOKIOJFOABEGGAEKHAMIJLFMMLNDFJHBGHNNJKDBIGKBGDPLPPNACGOAKLAKBNDOMGJGJPFHKEMLABEJPAAOGCGL
CPMEJCFDNINPGMINGMKMJLJDPEHPJPAKJIGHHBAGNNDCFAENLINDNCNEPCBEPHFLEAEMHAONILKCHAOPKBGMHAAHPOEEKLMECPGOCAIALNMDDEJA
BGKMCCPIGLBLPLPOGOIBNIKLHACHALIPKIKPDCBPBKMLDJLNELIEGBFNMPCLGAMNKJFPLFHDEOCODHEGGOGDBCDKLCFOGMICIFPMIPJKCJAEBLII
PEFMHCBNHPAMCIHCDADKCIPNIBPJLKCDGEENOELHPKMFJBBKCKEINJDDLKNAKNAFLIFEEHFDPIPBJHEBIAMEHJJNNPFKENOM
FGCKCNMNNIAMOAGBAPDIEPABNAGLMAAKOFIPKDFDNNPIJJJPMFFGPHKFPCPEJEJJDNJGCAHFILPGBEGFFIJOFMNHOCDAHCKCNICEEMOCBEDGNEIB
